data_3D\Atomistic
_audit_creation_date              2025-02-04
_audit_creation_method            'Materials Studio'
_symmetry_space_group_name_H-M    'P1'
_symmetry_Int_Tables_number       1
_symmetry_cell_setting            triclinic
loop_
_symmetry_equiv_pos_as_xyz
  x,y,z
_cell_length_a                    10.0000
_cell_length_b                    10.0000
_cell_length_c                    10.0000
_cell_angle_alpha                 90.0000
_cell_angle_beta                  90.0000
_cell_angle_gamma                 90.0000
loop_
_atom_site_label
_atom_site_type_symbol
_atom_site_fract_x
_atom_site_fract_y
_atom_site_fract_z
_atom_site_U_iso_or_equiv
_atom_site_adp_type
_atom_site_occupancy
S1     S    -0.56457  -0.54450   0.48939   0.00000  Uiso   1.00
O2     O    -0.54707  -0.40138   0.59376   0.00000  Uiso   1.00
O3     O    -0.42021  -0.56097   0.38657   0.00000  Uiso   1.00
O4     O    -0.58227  -0.68989   0.59054   0.00000  Uiso   1.00
X     O    -0.70873  -0.52577   0.38669   0.00000  Uiso   1.00
