# generated using pymatgen
data_Zn2H6C6N10O3
_symmetry_space_group_name_H-M   'P 1'
_cell_length_a   7.60010000
_cell_length_b   9.97580000
_cell_length_c   17.51080000
_cell_angle_alpha   90.00000000
_cell_angle_beta   90.00000000
_cell_angle_gamma   90.00000000
_symmetry_Int_Tables_number   1
_chemical_formula_structural   Zn2H6C6N10O3
_chemical_formula_sum   'Zn8 H24 C24 N40 O12'
_cell_volume   1327.61768209
_cell_formula_units_Z   4
loop_
 _symmetry_equiv_pos_site_id
 _symmetry_equiv_pos_as_xyz
  1  'x, y, z'
loop_
 _atom_site_type_symbol
 _atom_site_label
 _atom_site_symmetry_multiplicity
 _atom_site_fract_x
 _atom_site_fract_y
 _atom_site_fract_z
 _atom_site_occupancy
  Zn  Zn1  1  0.34975000  0.25000000  0.41926000  1.0
  Zn  Zn2  1  0.48977000  0.25000000  0.76296000  1.0
  Zn  Zn3  1  0.15025000  0.75000000  0.91926000  1.0
  Zn  Zn4  1  0.01023000  0.75000000  0.26296000  1.0
  Zn  Zn5  1  0.65025000  0.75000000  0.58074000  1.0
  Zn  Zn6  1  0.51023000  0.75000000  0.23704000  1.0
  Zn  Zn7  1  0.84975000  0.25000000  0.08074000  1.0
  Zn  Zn8  1  0.98977000  0.25000000  0.73704000  1.0
  H  H1  1  0.53720000  0.45920000  0.31840000  1.0
  H  H2  1  0.03790000  0.46830000  0.37230000  1.0
  H  H3  1  0.96280000  0.54080000  0.81840000  1.0
  H  H4  1  0.46210000  0.53170000  0.87230000  1.0
  H  H5  1  0.46280000  0.95920000  0.68160000  1.0
  H  H6  1  0.96210000  0.96830000  0.62770000  1.0
  H  H7  1  0.03720000  0.04080000  0.18160000  1.0
  H  H8  1  0.53790000  0.03170000  0.12770000  1.0
  H  H9  1  0.46280000  0.54080000  0.68160000  1.0
  H  H10  1  0.96210000  0.53170000  0.62770000  1.0
  H  H11  1  0.03720000  0.45920000  0.18160000  1.0
  H  H12  1  0.53790000  0.46830000  0.12770000  1.0
  H  H13  1  0.53720000  0.04080000  0.31840000  1.0
  H  H14  1  0.03790000  0.03170000  0.37230000  1.0
  H  H15  1  0.96280000  0.95920000  0.81840000  1.0
  H  H16  1  0.46210000  0.96830000  0.87230000  1.0
  H  H17  1  0.53530000  0.25000000  0.57770000  1.0
  H  H18  1  0.02620000  0.25000000  0.54290000  1.0
  H  H19  1  0.96470000  0.75000000  0.07770000  1.0
  H  H20  1  0.47380000  0.75000000  0.04290000  1.0
  H  H21  1  0.46470000  0.75000000  0.42230000  1.0
  H  H22  1  0.97380000  0.75000000  0.45710000  1.0
  H  H23  1  0.03530000  0.25000000  0.92230000  1.0
  H  H24  1  0.52620000  0.25000000  0.95710000  1.0
  C  C1  1  0.41760000  0.48589000  0.32250000  1.0
  C  C2  1  0.14950000  0.49060000  0.35145000  1.0
  C  C3  1  0.08240000  0.51411000  0.82250000  1.0
  C  C4  1  0.35050000  0.50940000  0.85145000  1.0
  C  C5  1  0.58240000  0.98589000  0.67750000  1.0
  C  C6  1  0.85050000  0.99060000  0.64855000  1.0
  C  C7  1  0.91760000  0.01411000  0.17750000  1.0
  C  C8  1  0.64950000  0.00940000  0.14855000  1.0
  C  C9  1  0.58240000  0.51411000  0.67750000  1.0
  C  C10  1  0.85050000  0.50940000  0.64855000  1.0
  C  C11  1  0.91760000  0.48589000  0.17750000  1.0
  C  C12  1  0.64950000  0.49060000  0.14855000  1.0
  C  C13  1  0.41760000  0.01411000  0.32250000  1.0
  C  C14  1  0.14950000  0.00940000  0.35145000  1.0
  C  C15  1  0.08240000  0.98589000  0.82250000  1.0
  C  C16  1  0.35050000  0.99060000  0.85145000  1.0
  C  C17  1  0.41170000  0.25000000  0.58588000  1.0
  C  C18  1  0.13810000  0.25000000  0.56714000  1.0
  C  C19  1  0.08830000  0.75000000  0.08588000  1.0
  C  C20  1  0.36190000  0.75000000  0.06714000  1.0
  C  C21  1  0.58830000  0.75000000  0.41412000  1.0
  C  C22  1  0.86190000  0.75000000  0.43286000  1.0
  C  C23  1  0.91170000  0.25000000  0.91412000  1.0
  C  C24  1  0.63810000  0.25000000  0.93286000  1.0
  N  N1  1  0.29570000  0.41598000  0.36170000  1.0
  N  N2  1  0.35388000  0.59487000  0.29041000  1.0
  N  N3  1  0.17832000  0.59813000  0.30931000  1.0
  N  N4  1  0.20430000  0.58402000  0.86170000  1.0
  N  N5  1  0.14612000  0.40513000  0.79041000  1.0
  N  N6  1  0.32168000  0.40187000  0.80931000  1.0
  N  N7  1  0.70430000  0.91598000  0.63830000  1.0
  N  N8  1  0.64612000  0.09487000  0.70959000  1.0
  N  N9  1  0.82168000  0.09813000  0.69069000  1.0
  N  N10  1  0.79570000  0.08402000  0.13830000  1.0
  N  N11  1  0.85388000  0.90513000  0.20959000  1.0
  N  N12  1  0.67832000  0.90187000  0.19069000  1.0
  N  N13  1  0.70430000  0.58402000  0.63830000  1.0
  N  N14  1  0.64612000  0.40513000  0.70959000  1.0
  N  N15  1  0.82168000  0.40187000  0.69069000  1.0
  N  N16  1  0.79570000  0.41598000  0.13830000  1.0
  N  N17  1  0.85388000  0.59487000  0.20959000  1.0
  N  N18  1  0.67832000  0.59813000  0.19069000  1.0
  N  N19  1  0.29570000  0.08402000  0.36170000  1.0
  N  N20  1  0.35388000  0.90513000  0.29041000  1.0
  N  N21  1  0.17832000  0.90187000  0.30931000  1.0
  N  N22  1  0.20430000  0.91598000  0.86170000  1.0
  N  N23  1  0.14612000  0.09487000  0.79041000  1.0
  N  N24  1  0.32168000  0.09813000  0.80931000  1.0
  N  N25  1  0.29270000  0.25000000  0.52887000  1.0
  N  N26  1  0.33890000  0.25000000  0.65435000  1.0
  N  N27  1  0.16030000  0.25000000  0.64200000  1.0
  N  N28  1  0.20730000  0.75000000  0.02887000  1.0
  N  N29  1  0.16110000  0.75000000  0.15435000  1.0
  N  N30  1  0.33970000  0.75000000  0.14200000  1.0
  N  N31  1  0.70730000  0.75000000  0.47113000  1.0
  N  N32  1  0.66110000  0.75000000  0.34565000  1.0
  N  N33  1  0.83970000  0.75000000  0.35800000  1.0
  N  N34  1  0.79270000  0.25000000  0.97113000  1.0
  N  N35  1  0.83890000  0.25000000  0.84565000  1.0
  N  N36  1  0.66030000  0.25000000  0.85800000  1.0
  N  N92  1  0.77993145  0.18515010  0.44238464  1
  O  O93  1  0.65207287  0.25000000  0.42515288  1
  O  O94  1  0.77008159  0.10198977  0.49346062  1
  O  O95  1  0.91918023  0.19885337  0.40423596  1
  N  N96  1  -0.15019937  0.63172691  0.95596495  1
  O  O97  1  -0.15177697  0.73981192  0.92515288  1
  O  O98  1  -0.27587949  0.59634075  0.99456050  1
  O  O99  1  -0.02288597  0.55372703  0.94408960  1
  N  N100  1  0.30641553  0.86417614  0.54480412  1
  O  O101  1  0.34822303  0.76018808  0.57484712  1
  O  O102  1  0.40486692  0.96088744  0.54798027  1
  O  O103  1  0.16605659  0.86887078  0.50671688  1
  N  N104  1  1.26358278  0.32462912  0.05052776  1
  O  O105  1  1.15207287  0.25000000  0.07484712  1
  O  O106  1  1.40868274  0.32775556  0.08056546  1
  O  O107  1  1.23159624  0.39258128  -0.00844321  1
